<routes xmlns:xsi="http://www.w3.org/2001/XMLSchema-instance" xsi:noNamespaceSchemaLocation="http://sumo.dlr.de/xsd/routes_file.xsd">
    <vType accel="2.6" color="0,0,1" decel="4.5" id="car" length="5" maxSpeed="70" sigma="0.5"/>
    <vType accel="2.6" color="1,0,0" decel="4.5" id="highlighted_car" length="5" maxSpeed="70" sigma="0.5"/>
    <vehicle depart="2" id="route_highlight" type="highlighted_car">
        <route edges="269696412#0 269696412#1 269696412#2 269696412#3 269696412#4 269696412#5 269696412#6 269696412#7 269696412#8 -269696412#8"/>
    </vehicle>
    <vehicle depart="2.0" id="random_vehicle_12" type="car">
        <route edges="269696412#1 269696412#2 269696412#3 269696412#4 269696412#5 269696412#6 -269696412#6 -269696412#5"/>
    </vehicle>
    <vehicle depart="13.7" id="random_vehicle_23" type="car">
        <route edges="269696412#5 269696412#6 -269696412#6 -269696412#5 -269696412#4 -269696412#3"/>
    </vehicle>
    <vehicle depart="18.5" id="random_vehicle_49" type="car">
        <route edges="-269696412#8 -269696412#7 -269696412#6 -269696412#5 -269696412#4 -269696412#3 -269696412#2 -269696412#1 -269696412#0 269696412#0 269696412#1 269696412#2 269696412#3 269696412#4 269696412#5"/>
    </vehicle>
    <vehicle depart="19.1" id="random_vehicle_34" type="car">
        <route edges="269696412#4 269696412#5"/>
    </vehicle>
    <vehicle depart="20.5" id="random_vehicle_10" type="car">
        <route edges="-269696412#1 -269696412#0 269696412#0 269696412#1 269696412#2 269696412#3 269696412#4 269696412#5 269696412#6 -269696412#6"/>
    </vehicle>
    <vehicle depart="30.6" id="random_vehicle_17" type="car">
        <route edges="269696412#0 269696412#1 269696412#2 269696412#3 269696412#4 269696412#5 269696412#6 269696412#7 -269696412#7"/>
    </vehicle>
    <vehicle depart="32.6" id="random_vehicle_4" type="car">
        <route edges="-269696412#5 -269696412#4 -269696412#3 -269696412#2 -269696412#1"/>
    </vehicle>
    <vehicle depart="32.6" id="random_vehicle_39" type="car">
        <route edges="269696412#5 269696412#6 -269696412#6 -269696412#5 -269696412#4 -269696412#3 -269696412#2 -269696412#1 -269696412#0 269696412#0 269696412#1 269696412#2 269696412#3 269696412#4"/>
    </vehicle>
    <vehicle depart="42.4" id="random_vehicle_40" type="car">
        <route edges="269696412#2 269696412#3 269696412#4 269696412#5 269696412#6 -692238234#1 -692238234#0 692238234#0 692238234#1"/>
    </vehicle>
    <vehicle depart="52.5" id="random_vehicle_42" type="car">
        <route edges="-269696412#7 -269696412#6 -269696412#5 -269696412#4 -269696412#3 -269696412#2 -269696412#1 -269696412#0 269696412#0 269696412#1 269696412#2"/>
    </vehicle>
    <vehicle depart="53.0" id="random_vehicle_6" type="car">
        <route edges="269696412#7 -269696412#7 -692238234#1"/>
    </vehicle>
    <vehicle depart="58.8" id="random_vehicle_30" type="car">
        <route edges="269696412#5 269696412#6 -692238234#1 -692238234#0 692238234#0 692238234#1"/>
    </vehicle>
    <vehicle depart="70.8" id="random_vehicle_33" type="car">
        <route edges="-269696412#6 -269696412#5 -269696412#4"/>
    </vehicle>
    <vehicle depart="73.0" id="random_vehicle_1" type="car">
        <route edges="269696412#5 269696412#6 269696412#7 269696412#8 -269696412#8"/>
    </vehicle>
    <vehicle depart="74.8" id="random_vehicle_20" type="car">
        <route edges="-269696412#7 -269696412#6 -269696412#5 -269696412#4 -269696412#3 -269696412#2 -269696412#1"/>
    </vehicle>
    <vehicle depart="75.9" id="random_vehicle_29" type="car">
        <route edges="269696412#4 269696412#5 269696412#6 -269696412#6 -269696412#5"/>
    </vehicle>
    <vehicle depart="82.2" id="random_vehicle_45" type="car">
        <route edges="269696412#8 -269696412#8 -269696412#7 -692238234#1"/>
    </vehicle>
    <vehicle depart="95.5" id="random_vehicle_5" type="car">
        <route edges="269696412#8 -269696412#8 -269696412#7 -269696412#6 -269696412#5 -269696412#4 -269696412#3 -269696412#2 -269696412#1 -269696412#0 269696412#0 269696412#1"/>
    </vehicle>
    <vehicle depart="96.1" id="random_vehicle_7" type="car">
        <route edges="269696412#1 269696412#2 269696412#3 269696412#4 269696412#5 269696412#6 -692238234#1"/>
    </vehicle>
    <vehicle depart="114.9" id="random_vehicle_36" type="car">
        <route edges="-269696412#1 -269696412#0 269696412#0 269696412#1 269696412#2 269696412#3 269696412#4 269696412#5 269696412#6 269696412#7"/>
    </vehicle>
    <vehicle depart="115.0" id="random_vehicle_16" type="car">
        <route edges="-269696412#3 -269696412#2 -269696412#1 -269696412#0 269696412#0 269696412#1 269696412#2 269696412#3 269696412#4 269696412#5 269696412#6 -269696412#6 -269696412#5"/>
    </vehicle>
    <vehicle depart="117.9" id="random_vehicle_11" type="car">
        <route edges="269696412#8 -269696412#8 -269696412#7 -269696412#6 -269696412#5 -269696412#4 -269696412#3 -269696412#2 -269696412#1 -269696412#0"/>
    </vehicle>
    <vehicle depart="119.0" id="random_vehicle_14" type="car">
        <route edges="269696412#6 -269696412#6 -269696412#5 -269696412#4 -269696412#3 -269696412#2 -269696412#1 -269696412#0 269696412#0 269696412#1 269696412#2 269696412#3"/>
    </vehicle>
    <vehicle depart="119.1" id="random_vehicle_38" type="car">
        <route edges="-269696412#1 -269696412#0 269696412#0 269696412#1 269696412#2 269696412#3 269696412#4 269696412#5 269696412#6 -269696412#6 -269696412#5 -269696412#4 -269696412#3"/>
    </vehicle>
    <vehicle depart="120.5" id="random_vehicle_0" type="car">
        <route edges="-269696412#7 -269696412#6 -269696412#5 -269696412#4 -269696412#3 -269696412#2 -269696412#1 -269696412#0 269696412#0 269696412#1"/>
    </vehicle>
    <vehicle depart="123.3" id="random_vehicle_27" type="car">
        <route edges="-269696412#6 -269696412#5 -269696412#4 -269696412#3 -269696412#2 -269696412#1 -269696412#0 269696412#0 269696412#1 269696412#2 269696412#3 269696412#4 269696412#5 269696412#6 269696412#7 269696412#8"/>
    </vehicle>
    <vehicle depart="125.2" id="random_vehicle_24" type="car">
        <route edges="269696412#1 269696412#2 269696412#3 269696412#4 269696412#5 269696412#6 -692238234#1 -692238234#0 692238234#0"/>
    </vehicle>
    <vehicle depart="125.3" id="random_vehicle_13" type="car">
        <route edges="269696412#6 -269696412#6 -269696412#5 -269696412#4 -269696412#3 -269696412#2 -269696412#1 -269696412#0 269696412#0 269696412#1"/>
    </vehicle>
    <vehicle depart="127.5" id="random_vehicle_47" type="car">
        <route edges="269696412#1 269696412#2 269696412#3 269696412#4 269696412#5 269696412#6 -692238234#1 -692238234#0 692238234#0"/>
    </vehicle>
    <vehicle depart="128.4" id="random_vehicle_15" type="car">
        <route edges="269696412#4 269696412#5 269696412#6 -692238234#1"/>
    </vehicle>
    <vehicle depart="131.2" id="random_vehicle_35" type="car">
        <route edges="-269696412#4 -269696412#3 -269696412#2 -269696412#1 -269696412#0 269696412#0 269696412#1 269696412#2 269696412#3 269696412#4 269696412#5 269696412#6 269696412#7 269696412#8"/>
    </vehicle>
    <vehicle depart="135.0" id="random_vehicle_21" type="car">
        <route edges="-692238234#0 692238234#0"/>
    </vehicle>
    <vehicle depart="137.1" id="random_vehicle_48" type="car">
        <route edges="269696412#4 269696412#5 269696412#6 -269696412#6 -269696412#5 -269696412#4 -269696412#3 -269696412#2 -269696412#1 -269696412#0 269696412#0"/>
    </vehicle>
    <vehicle depart="143.7" id="random_vehicle_41" type="car">
        <route edges="269696412#8 -269696412#8 -269696412#7 -692238234#1 -692238234#0"/>
    </vehicle>
    <vehicle depart="145.2" id="random_vehicle_37" type="car">
        <route edges="-269696412#1 -269696412#0 269696412#0 269696412#1 269696412#2 269696412#3"/>
    </vehicle>
    <vehicle depart="146.8" id="random_vehicle_18" type="car">
        <route edges="269696412#2 269696412#3 269696412#4 269696412#5 269696412#6 -692238234#1 -692238234#0 692238234#0"/>
    </vehicle>
    <vehicle depart="147.5" id="random_vehicle_32" type="car">
        <route edges="269696412#4 269696412#5"/>
    </vehicle>
    <vehicle depart="150.4" id="random_vehicle_26" type="car">
        <route edges="269696412#7 -269696412#7 -269696412#6 -269696412#5 -269696412#4 -269696412#3 -269696412#2 -269696412#1 -269696412#0 269696412#0 269696412#1"/>
    </vehicle>
    <vehicle depart="159.2" id="random_vehicle_22" type="car">
        <route edges="-269696412#4 -269696412#3 -269696412#2 -269696412#1 -269696412#0 269696412#0 269696412#1 269696412#2 269696412#3"/>
    </vehicle>
    <vehicle depart="161.8" id="random_vehicle_25" type="car">
        <route edges="269696412#4 269696412#5 269696412#6 269696412#7 -269696412#7"/>
    </vehicle>
    <vehicle depart="167.4" id="random_vehicle_19" type="car">
        <route edges="269696412#4 269696412#5 269696412#6 -692238234#1 -692238234#0 692238234#0 692238234#1"/>
    </vehicle>
    <vehicle depart="169.2" id="random_vehicle_31" type="car">
        <route edges="-269696412#5 -269696412#4 -269696412#3 -269696412#2 -269696412#1 -269696412#0 269696412#0 269696412#1 269696412#2 269696412#3 269696412#4 269696412#5 269696412#6 269696412#7"/>
    </vehicle>
    <vehicle depart="174.8" id="random_vehicle_8" type="car">
        <route edges="269696412#6 -269696412#6 -269696412#5 -269696412#4 -269696412#3 -269696412#2 -269696412#1 -269696412#0 269696412#0 269696412#1 269696412#2 269696412#3 269696412#4"/>
    </vehicle>
    <vehicle depart="176.0" id="random_vehicle_43" type="car">
        <route edges="269696412#1 269696412#2 269696412#3 269696412#4 269696412#5 269696412#6 269696412#7 269696412#8 -269696412#8"/>
    </vehicle>
    <vehicle depart="176.7" id="random_vehicle_2" type="car">
        <route edges="-269696412#1 -269696412#0 269696412#0 269696412#1 269696412#2 269696412#3"/>
    </vehicle>
    <vehicle depart="191.3" id="random_vehicle_3" type="car">
        <route edges="-269696412#3 -269696412#2 -269696412#1 -269696412#0 269696412#0 269696412#1 269696412#2 269696412#3 269696412#4 269696412#5 269696412#6 269696412#7 269696412#8"/>
    </vehicle>
    <vehicle depart="193.7" id="random_vehicle_28" type="car">
        <route edges="269696412#6"/>
    </vehicle>
    <vehicle depart="195.0" id="random_vehicle_46" type="car">
        <route edges="269696412#4 269696412#5 269696412#6 -269696412#6 -269696412#5 -269696412#4 -269696412#3 -269696412#2 -269696412#1 -269696412#0 269696412#0 269696412#1 269696412#2 269696412#3"/>
    </vehicle>
    <vehicle depart="197.0" id="random_vehicle_44" type="car">
        <route edges="-692238234#0 692238234#0 692238234#1 -269696412#6 -269696412#5 -269696412#4 -269696412#3 -269696412#2"/>
    </vehicle>
    <vehicle depart="197.1" id="random_vehicle_9" type="car">
        <route edges="269696412#0 269696412#1 269696412#2 269696412#3 269696412#4 269696412#5 269696412#6 -269696412#6 -269696412#5 -269696412#4 -269696412#3"/>
    </vehicle>
</routes>
