<?xml version="1.0" encoding="UTF-8"?>

<!-- generated on 2024-11-15 21:33:40 by Eclipse SUMO netconvert Version 1.21.0
<netconvertConfiguration xmlns:xsi="http://www.w3.org/2001/XMLSchema-instance" xsi:noNamespaceSchemaLocation="http://sumo.dlr.de/xsd/netconvertConfiguration.xsd">

    <input>
        <type-files value="osmNetconvert.typ.xml"/>
        <osm-files value="map.osm"/>
    </input>

    <output>
        <output-file value="test.net.xml"/>
    </output>

    <projection>
        <proj.utm value="true"/>
    </projection>

    <report>
        <xml-validation value="never"/>
    </report>

</netconvertConfiguration>
-->

<net version="1.20" junctionCornerDetail="5" limitTurnSpeed="5.50" xmlns:xsi="http://www.w3.org/2001/XMLSchema-instance" xsi:noNamespaceSchemaLocation="http://sumo.dlr.de/xsd/net_file.xsd">

    <location netOffset="-446752.54,-1819254.27" convBoundary="0.00,0.00,2544.95,1362.81" origBoundary="80.497035,16.449019,80.557348,16.485046" projParameter="+proj=utm +zone=44 +ellps=WGS84 +datum=WGS84 +units=m +no_defs"/>

    <type id="highway.residential" priority="3" numLanes="1" speed="13.89" disallow="tram rail_urban rail rail_electric rail_fast ship container cable_car subway aircraft wheelchair scooter drone" oneway="0"/>
    <type id="highway.secondary" priority="11" numLanes="1" speed="27.78" disallow="tram rail_urban rail rail_electric rail_fast ship container cable_car subway aircraft wheelchair scooter drone" oneway="0"/>
    <type id="highway.service" priority="1" numLanes="1" speed="5.56" allow="pedestrian delivery bicycle" oneway="0"/>
    <type id="highway.track" priority="1" numLanes="1" speed="5.56" allow="pedestrian motorcycle moped bicycle" oneway="0"/>

    <edge id=":12243970667_0" function="internal">
        <lane id=":12243970667_0_0" index="0" allow="pedestrian motorcycle moped bicycle" speed="3.65" length="4.67" shape="785.48,347.41 785.93,346.04 786.59,345.44 787.47,345.61 788.56,346.54"/>
    </edge>
    <edge id=":2748489562_0" function="internal">
        <lane id=":2748489562_0_0" index="0" disallow="tram rail_urban rail rail_electric rail_fast ship container cable_car subway aircraft wheelchair scooter drone" speed="3.65" length="4.67" shape="2544.61,-1.56 2545.95,-1.04 2546.52,-0.34 2546.30,0.52 2545.30,1.56"/>
    </edge>
    <edge id=":2748489770_0" function="internal">
        <lane id=":2748489770_0_0" index="0" disallow="tram rail_urban rail rail_electric rail_fast ship container cable_car subway aircraft wheelchair scooter drone" speed="26.11" length="12.86" shape="850.39,538.76 847.00,538.47 843.99,538.56 841.00,538.99 837.65,539.72"/>
    </edge>
    <edge id=":2748489770_1" function="internal">
        <lane id=":2748489770_1_0" index="0" allow="pedestrian motorcycle moped bicycle" speed="10.08" length="3.27" shape="850.39,538.76 847.25,537.86"/>
    </edge>
    <edge id=":2748489770_2" function="internal">
        <lane id=":2748489770_2_0" index="0" disallow="tram rail_urban rail rail_electric rail_fast ship container cable_car subway aircraft wheelchair scooter drone" speed="3.65" length="1.44" shape="850.39,538.76 849.31,537.81"/>
    </edge>
    <edge id=":2748489770_9" function="internal">
        <lane id=":2748489770_9_0" index="0" allow="pedestrian motorcycle moped bicycle" speed="10.08" length="10.77" shape="847.25,537.86 844.54,536.07 842.27,533.39 840.45,529.82"/>
    </edge>
    <edge id=":2748489770_10" function="internal">
        <lane id=":2748489770_10_0" index="0" disallow="tram rail_urban rail rail_electric rail_fast ship container cable_car subway aircraft wheelchair scooter drone" speed="3.65" length="3.23" shape="849.31,537.81 849.02,536.96 849.53,536.22 850.82,535.59"/>
    </edge>
    <edge id=":2748489770_3" function="internal">
        <lane id=":2748489770_3_0" index="0" allow="pedestrian motorcycle moped bicycle" speed="8.85" length="10.66" shape="843.42,528.63 844.82,531.43 846.53,533.52 848.53,534.91 850.82,535.59"/>
    </edge>
    <edge id=":2748489770_4" function="internal">
        <lane id=":2748489770_4_0" index="0" allow="pedestrian motorcycle moped bicycle" speed="7.76" length="14.79" shape="843.42,528.63 844.39,532.66 843.75,535.85 841.51,538.20 837.65,539.72"/>
    </edge>
    <edge id=":2748489770_5" function="internal">
        <lane id=":2748489770_5_0" index="0" allow="pedestrian motorcycle moped bicycle" speed="3.65" length="4.67" shape="843.42,528.63 843.12,530.04 842.53,530.71 841.63,530.64 840.45,529.82"/>
    </edge>
    <edge id=":2748489770_6" function="internal">
        <lane id=":2748489770_6_0" index="0" allow="pedestrian motorcycle moped bicycle" speed="6.21" length="9.05" shape="836.92,536.60 839.28,535.67 840.65,534.23 841.04,532.28 840.45,529.82"/>
    </edge>
    <edge id=":2748489770_7" function="internal">
        <lane id=":2748489770_7_0" index="0" disallow="tram rail_urban rail rail_electric rail_fast ship container cable_car subway aircraft wheelchair scooter drone" speed="27.25" length="14.02" shape="836.92,536.60 840.45,535.87 843.84,535.42 847.24,535.31 850.82,535.59"/>
    </edge>
    <edge id=":2748489770_8" function="internal">
        <lane id=":2748489770_8_0" index="0" disallow="tram rail_urban rail rail_electric rail_fast ship container cable_car subway aircraft wheelchair scooter drone" speed="3.65" length="1.44" shape="836.92,536.60 838.27,537.11"/>
    </edge>
    <edge id=":2748489770_11" function="internal">
        <lane id=":2748489770_11_0" index="0" disallow="tram rail_urban rail rail_electric rail_fast ship container cable_car subway aircraft wheelchair scooter drone" speed="3.65" length="3.23" shape="838.27,537.11 838.84,537.79 838.64,538.66 837.65,539.72"/>
    </edge>
    <edge id=":2748489792_0" function="internal">
        <lane id=":2748489792_0_0" index="0" disallow="tram rail_urban rail rail_electric rail_fast ship container cable_car subway aircraft wheelchair scooter drone" speed="4.18" length="1.28" shape="665.99,586.55 665.67,586.64 665.39,586.79 665.15,586.99 664.95,587.24"/>
    </edge>
    <edge id=":2748489792_1" function="internal">
        <lane id=":2748489792_1_0" index="0" disallow="tram rail_urban rail rail_electric rail_fast ship container cable_car subway aircraft wheelchair scooter drone" speed="6.60" length="3.85" shape="662.28,585.47 662.90,584.71 663.62,584.11 664.46,583.67 665.41,583.41"/>
    </edge>
    <edge id=":2748489878_0" function="internal">
        <lane id=":2748489878_0_0" index="0" disallow="tram rail_urban rail rail_electric rail_fast ship container cable_car subway aircraft wheelchair scooter drone" speed="27.78" length="0.30" shape="297.83,716.93 297.55,717.02"/>
    </edge>
    <edge id=":2748489878_1" function="internal">
        <lane id=":2748489878_1_0" index="0" disallow="tram rail_urban rail rail_electric rail_fast ship container cable_car subway aircraft wheelchair scooter drone" speed="27.78" length="0.20" shape="296.62,713.96 296.81,713.90"/>
    </edge>
    <edge id=":2748489886_0" function="internal">
        <lane id=":2748489886_0_0" index="0" disallow="tram rail_urban rail rail_electric rail_fast ship container cable_car subway aircraft wheelchair scooter drone" speed="3.65" length="4.67" shape="0.41,800.02 -0.95,799.56 -1.55,798.89 -1.37,798.01 -0.41,796.93"/>
    </edge>
    <edge id=":5482599216_0" function="internal">
        <lane id=":5482599216_0_0" index="0" allow="pedestrian delivery bicycle" speed="5.32" length="5.29" shape="795.49,1109.75 793.98,1110.01 792.89,1110.61 792.20,1111.57 791.93,1112.87"/>
    </edge>
    <edge id=":5482599216_1" function="internal">
        <lane id=":5482599216_1_0" index="0" allow="pedestrian delivery bicycle" speed="5.56" length="9.89" shape="795.49,1109.75 792.58,1109.64 790.61,1109.17 788.64,1108.66 785.73,1108.45"/>
    </edge>
    <edge id=":5482599216_2" function="internal">
        <lane id=":5482599216_2_0" index="0" allow="pedestrian delivery bicycle" speed="5.56" length="10.45" shape="795.49,1109.75 792.62,1109.48 790.57,1108.34 789.36,1106.34 788.98,1103.48"/>
    </edge>
    <edge id=":5482599216_3" function="internal">
        <lane id=":5482599216_3_0" index="0" allow="pedestrian delivery bicycle" speed="3.65" length="4.67" shape="795.49,1109.75 794.25,1109.01 793.81,1108.23 794.18,1107.41 795.34,1106.56"/>
    </edge>
    <edge id=":5482599216_4" function="internal">
        <lane id=":5482599216_4_0" index="0" allow="pedestrian delivery bicycle" speed="4.98" length="5.07" shape="792.17,1103.51 792.36,1104.90 792.95,1105.87 793.94,1106.42 795.34,1106.56"/>
    </edge>
    <edge id=":5482599216_5" function="internal">
        <lane id=":5482599216_5_0" index="0" allow="pedestrian delivery bicycle" speed="5.56" length="9.36" shape="792.17,1103.51 791.93,1112.87"/>
    </edge>
    <edge id=":5482599216_6" function="internal">
        <lane id=":5482599216_6_0" index="0" allow="pedestrian delivery bicycle" speed="5.56" length="9.16" shape="792.17,1103.51 791.75,1105.64 790.54,1107.18 788.53,1108.11 785.73,1108.45"/>
    </edge>
    <edge id=":5482599216_7" function="internal">
        <lane id=":5482599216_7_0" index="0" allow="pedestrian delivery bicycle" speed="3.65" length="4.67" shape="792.17,1103.51 791.36,1104.71 790.56,1105.10 789.76,1104.69 788.98,1103.48"/>
    </edge>
    <edge id=":5482599216_8" function="internal">
        <lane id=":5482599216_8_0" index="0" allow="pedestrian delivery bicycle" speed="5.34" length="6.00" shape="788.74,1112.73 788.62,1110.84 788.08,1109.50 787.12,1108.70 785.73,1108.45"/>
    </edge>
    <edge id=":5482599216_9" function="internal">
        <lane id=":5482599216_9_0" index="0" allow="pedestrian delivery bicycle" speed="5.56" length="9.25" shape="788.74,1112.73 788.98,1103.48"/>
    </edge>
    <edge id=":5482599216_10" function="internal">
        <lane id=":5482599216_10_0" index="0" allow="pedestrian delivery bicycle" speed="5.56" length="10.11" shape="788.74,1112.73 789.25,1110.15 790.51,1108.25 792.54,1107.06 795.34,1106.56"/>
    </edge>
    <edge id=":5482599216_11" function="internal">
        <lane id=":5482599216_11_0" index="0" allow="pedestrian delivery bicycle" speed="3.65" length="4.67" shape="788.74,1112.73 789.59,1111.57 790.41,1111.21 791.19,1111.64 791.93,1112.87"/>
    </edge>
    <edge id=":5482599217_0" function="internal">
        <lane id=":5482599217_0_0" index="0" disallow="tram rail_urban rail rail_electric rail_fast ship container cable_car subway aircraft wheelchair scooter drone" speed="27.78" length="8.66" shape="797.59,541.73 795.02,541.76 793.27,541.91 791.54,542.22 789.02,542.74"/>
    </edge>
    <edge id=":5482599217_1" function="internal">
        <lane id=":5482599217_1_0" index="0" allow="pedestrian delivery bicycle" speed="7.94" length="2.75" shape="797.59,541.73 795.36,541.35 794.94,541.10"/>
    </edge>
    <edge id=":5482599217_7" function="internal">
        <lane id=":5482599217_7_0" index="0" allow="pedestrian delivery bicycle" speed="7.94" length="7.14" shape="794.94,541.10 793.44,540.23 791.80,538.36 790.47,535.76"/>
    </edge>
    <edge id=":5482599217_2" function="internal">
        <lane id=":5482599217_2_0" index="0" allow="pedestrian delivery bicycle" speed="6.36" length="6.08" shape="793.44,534.57 794.29,536.30 795.27,537.54 796.37,538.28 797.60,538.53"/>
    </edge>
    <edge id=":5482599217_3" function="internal">
        <lane id=":5482599217_3_0" index="0" allow="pedestrian delivery bicycle" speed="6.74" length="11.10" shape="793.44,534.57 794.17,537.61 793.68,539.98 791.96,541.69 789.02,542.74"/>
    </edge>
    <edge id=":5482599217_4" function="internal">
        <lane id=":5482599217_4_0" index="0" allow="pedestrian delivery bicycle" speed="3.65" length="4.67" shape="793.44,534.57 793.14,535.98 792.55,536.65 791.66,536.58 790.47,535.76"/>
    </edge>
    <edge id=":5482599217_5" function="internal">
        <lane id=":5482599217_5_0" index="0" allow="pedestrian delivery bicycle" speed="4.87" length="5.23" shape="788.38,539.61 789.77,539.11 790.58,538.31 790.81,537.19 790.47,535.76"/>
    </edge>
    <edge id=":5482599217_6" function="internal">
        <lane id=":5482599217_6_0" index="0" disallow="tram rail_urban rail rail_electric rail_fast ship container cable_car subway aircraft wheelchair scooter drone" speed="27.78" length="9.31" shape="788.38,539.61 791.09,539.05 792.96,538.72 794.84,538.56 797.60,538.53"/>
    </edge>
    <edge id=":6372527727_0" function="internal">
        <lane id=":6372527727_0_0" index="0" allow="pedestrian delivery bicycle" speed="4.74" length="5.53" shape="634.79,625.37 634.56,623.77 633.88,622.84 632.76,622.56 631.20,622.94"/>
    </edge>
    <edge id=":6372527727_1" function="internal">
        <lane id=":6372527727_1_0" index="0" allow="pedestrian delivery bicycle" speed="8.37" length="8.06" shape="634.79,625.37 634.76,623.78 634.76,621.22 634.92,618.73 635.35,617.37"/>
    </edge>
    <edge id=":6372527727_2" function="internal">
        <lane id=":6372527727_2_0" index="0" disallow="tram rail_urban rail rail_electric rail_fast ship container cable_car subway aircraft wheelchair scooter drone" speed="27.78" length="6.80" shape="637.25,619.94 635.60,621.09 634.38,621.73 633.09,622.23 631.20,622.94"/>
    </edge>
    <edge id=":6372527727_3" function="internal">
        <lane id=":6372527727_3_0" index="0" disallow="tram rail_urban rail rail_electric rail_fast ship container cable_car subway aircraft wheelchair scooter drone" speed="27.78" length="5.97" shape="630.01,619.97 631.67,619.35 632.82,618.92 633.90,618.37 635.35,617.37"/>
    </edge>
    <edge id=":6372527729_0" function="internal">
        <lane id=":6372527729_0_0" index="0" allow="pedestrian delivery bicycle" speed="6.12" length="6.45" shape="335.96,704.45 334.79,705.02 333.94,706.10 333.44,707.69 333.27,709.78"/>
    </edge>
    <edge id=":6372527729_1" function="internal">
        <lane id=":6372527729_1_0" index="0" disallow="tram rail_urban rail rail_electric rail_fast ship container cable_car subway aircraft wheelchair scooter drone" speed="27.78" length="9.84" shape="335.96,704.45 333.13,705.14 331.20,705.68 329.30,706.30 326.54,707.24"/>
    </edge>
    <edge id=":6372527729_2" function="internal">
        <lane id=":6372527729_2_0" index="0" disallow="tram rail_urban rail rail_electric rail_fast ship container cable_car subway aircraft wheelchair scooter drone" speed="27.78" length="10.13" shape="325.51,704.21 328.35,703.25 330.32,702.61 332.32,702.04 335.22,701.33"/>
    </edge>
    <edge id=":6372527729_3" function="internal">
        <lane id=":6372527729_3_0" index="0" allow="pedestrian delivery bicycle" speed="6.68" length="3.68" shape="325.51,704.21 328.91,703.58 329.12,703.64"/>
    </edge>
    <edge id=":6372527729_7" function="internal">
        <lane id=":6372527729_7_0" index="0" allow="pedestrian delivery bicycle" speed="6.68" length="8.29" shape="329.12,703.64 331.33,704.29 332.79,706.36 333.27,709.78"/>
    </edge>
    <edge id=":6372527729_4" function="internal">
        <lane id=":6372527729_4_0" index="0" allow="pedestrian delivery bicycle" speed="4.77" length="5.45" shape="330.07,709.78 329.85,708.22 329.19,707.28 328.08,706.95 326.54,707.24"/>
    </edge>
    <edge id=":6372527729_5" function="internal">
        <lane id=":6372527729_5_0" index="0" allow="pedestrian delivery bicycle" speed="7.71" length="10.75" shape="330.07,709.78 330.39,706.54 331.36,704.06 332.97,702.32 335.22,701.33"/>
    </edge>
    <edge id=":6372527729_6" function="internal">
        <lane id=":6372527729_6_0" index="0" allow="pedestrian delivery bicycle" speed="3.65" length="4.67" shape="330.07,709.78 330.87,708.58 331.67,708.18 332.47,708.58 333.27,709.78"/>
    </edge>
    <edge id=":6497851354_0" function="internal">
        <lane id=":6497851354_0_0" index="0" disallow="tram rail_urban rail rail_electric rail_fast ship container cable_car subway aircraft wheelchair scooter drone" speed="6.83" length="8.49" shape="828.04,541.87 825.95,542.62 824.46,543.89 823.56,545.67 823.26,547.97"/>
    </edge>
    <edge id=":6497851354_1" function="internal">
        <lane id=":6497851354_1_0" index="0" disallow="tram rail_urban rail rail_electric rail_fast ship container cable_car subway aircraft wheelchair scooter drone" speed="27.78" length="13.01" shape="828.04,541.87 824.65,542.46 821.60,542.73 818.53,542.70 815.10,542.40"/>
    </edge>
    <edge id=":6497851354_2" function="internal">
        <lane id=":6497851354_2_0" index="0" disallow="tram rail_urban rail rail_electric rail_fast ship container cable_car subway aircraft wheelchair scooter drone" speed="3.65" length="1.44" shape="828.04,541.87 826.70,541.33"/>
    </edge>
    <edge id=":6497851354_9" function="internal">
        <lane id=":6497851354_9_0" index="0" disallow="tram rail_urban rail rail_electric rail_fast ship container cable_car subway aircraft wheelchair scooter drone" speed="3.65" length="3.23" shape="826.70,541.33 826.15,540.63 826.38,539.76 827.40,538.74"/>
    </edge>
    <edge id=":6497851354_3" function="internal">
        <lane id=":6497851354_3_0" index="0" disallow="tram rail_urban rail rail_electric rail_fast ship container cable_car subway aircraft wheelchair scooter drone" speed="27.78" length="12.01" shape="815.47,539.22 818.74,539.53 821.46,539.57 824.17,539.32 827.40,538.74"/>
    </edge>
    <edge id=":6497851354_4" function="internal">
        <lane id=":6497851354_4_0" index="0" disallow="tram rail_urban rail rail_electric rail_fast ship container cable_car subway aircraft wheelchair scooter drone" speed="8.03" length="3.64" shape="815.47,539.22 818.88,540.11 818.98,540.18"/>
    </edge>
    <edge id=":6497851354_5" function="internal">
        <lane id=":6497851354_5_0" index="0" disallow="tram rail_urban rail rail_electric rail_fast ship container cable_car subway aircraft wheelchair scooter drone" speed="3.65" length="1.44" shape="815.47,539.22 816.57,540.15"/>
    </edge>
    <edge id=":6497851354_10" function="internal">
        <lane id=":6497851354_10_0" index="0" disallow="tram rail_urban rail rail_electric rail_fast ship container cable_car subway aircraft wheelchair scooter drone" speed="8.03" length="9.41" shape="818.98,540.18 821.32,541.86 822.78,544.48 823.26,547.97"/>
    </edge>
    <edge id=":6497851354_11" function="internal">
        <lane id=":6497851354_11_0" index="0" disallow="tram rail_urban rail rail_electric rail_fast ship container cable_car subway aircraft wheelchair scooter drone" speed="3.65" length="3.23" shape="816.57,540.15 816.87,541.00 816.38,541.74 815.10,542.40"/>
    </edge>
    <edge id=":6497851354_6" function="internal">
        <lane id=":6497851354_6_0" index="0" disallow="tram rail_urban rail rail_electric rail_fast ship container cable_car subway aircraft wheelchair scooter drone" speed="6.53" length="8.31" shape="820.06,547.97 819.75,545.75 818.82,544.08 817.27,542.96 815.10,542.40"/>
    </edge>
    <edge id=":6497851354_7" function="internal">
        <lane id=":6497851354_7_0" index="0" disallow="tram rail_urban rail rail_electric rail_fast ship container cable_car subway aircraft wheelchair scooter drone" speed="8.29" length="12.93" shape="820.06,547.97 820.52,544.49 821.90,541.80 824.19,539.88 827.40,538.74"/>
    </edge>
    <edge id=":6497851354_8" function="internal">
        <lane id=":6497851354_8_0" index="0" disallow="tram rail_urban rail rail_electric rail_fast ship container cable_car subway aircraft wheelchair scooter drone" speed="3.65" length="4.67" shape="820.06,547.97 820.86,546.77 821.66,546.37 822.46,546.77 823.26,547.97"/>
    </edge>
    <edge id=":6497851355_0" function="internal">
        <lane id=":6497851355_0_0" index="0" allow="pedestrian delivery bicycle" speed="5.20" length="5.65" shape="825.13,1101.55 823.47,1101.15 822.15,1101.29 821.17,1102.00 820.53,1103.25"/>
    </edge>
    <edge id=":6497851355_1" function="internal">
        <lane id=":6497851355_1_0" index="0" disallow="tram rail_urban rail rail_electric rail_fast ship container cable_car subway aircraft wheelchair scooter drone" speed="8.09" length="11.78" shape="825.13,1101.55 822.36,1100.08 820.49,1098.05 819.52,1095.47 819.45,1092.34"/>
    </edge>
    <edge id=":6497851355_2" function="internal">
        <lane id=":6497851355_2_0" index="0" disallow="tram rail_urban rail rail_electric rail_fast ship container cable_car subway aircraft wheelchair scooter drone" speed="6.57" length="7.50" shape="822.63,1092.69 822.68,1094.68 823.29,1096.32 824.48,1097.61 826.24,1098.55"/>
    </edge>
    <edge id=":6497851355_3" function="internal">
        <lane id=":6497851355_3_0" index="0" allow="pedestrian delivery bicycle" speed="9.72" length="10.79" shape="822.63,1092.69 822.27,1095.76 821.92,1098.04 821.40,1100.28 820.53,1103.25"/>
    </edge>
    <edge id=":6497851355_4" function="internal">
        <lane id=":6497851355_4_0" index="0" allow="pedestrian delivery bicycle" speed="9.72" length="10.21" shape="817.47,1102.32 818.31,1099.44 818.80,1097.40 819.11,1095.32 819.45,1092.34"/>
    </edge>
    <edge id=":6497851355_5" function="internal">
        <lane id=":6497851355_5_0" index="0" allow="pedestrian delivery bicycle" speed="6.98" length="11.04" shape="817.47,1102.32 818.74,1099.72 820.62,1098.22 823.12,1097.83 826.24,1098.55"/>
    </edge>
    <edge id=":6497851355_6" function="internal">
        <lane id=":6497851355_6_0" index="0" allow="pedestrian delivery bicycle" speed="3.65" length="4.67" shape="817.47,1102.32 818.58,1101.41 819.47,1101.26 820.12,1101.87 820.53,1103.25"/>
    </edge>
    <edge id=":6497851356_0" function="internal">
        <lane id=":6497851356_0_0" index="0" disallow="tram rail_urban rail rail_electric rail_fast ship container cable_car subway aircraft wheelchair scooter drone" speed="3.65" length="4.67" shape="1308.63,1101.88 1309.83,1102.68 1310.23,1103.48 1309.84,1104.28 1308.64,1105.08"/>
    </edge>
    <edge id=":7147447940_0" function="internal">
        <lane id=":7147447940_0_0" index="0" allow="pedestrian delivery bicycle" speed="5.08" length="5.03" shape="637.46,1113.53 637.25,1112.17 636.66,1111.20 635.68,1110.62 634.31,1110.42"/>
    </edge>
    <edge id=":7147447940_1" function="internal">
        <lane id=":7147447940_1_0" index="0" allow="pedestrian delivery bicycle" speed="5.56" length="6.21" shape="637.46,1113.53 637.41,1107.31"/>
    </edge>
    <edge id=":7147447940_2" function="internal">
        <lane id=":7147447940_2_0" index="0" allow="pedestrian delivery bicycle" speed="5.56" length="6.23" shape="640.54,1110.39 634.31,1110.42"/>
    </edge>
    <edge id=":7147447940_3" function="internal">
        <lane id=":7147447940_3_0" index="0" allow="pedestrian delivery bicycle" speed="5.03" length="5.01" shape="640.54,1110.39 639.18,1110.21 638.20,1109.64 637.61,1108.68 637.41,1107.31"/>
    </edge>
    <edge id=":7147447941_0" function="internal">
        <lane id=":7147447941_0_0" index="0" allow="pedestrian delivery bicycle" speed="5.98" length="5.31" shape="624.59,625.57 623.54,626.21 622.79,627.14 622.34,628.39 622.19,629.94"/>
    </edge>
    <edge id=":7147447941_1" function="internal">
        <lane id=":7147447941_1_0" index="0" disallow="tram rail_urban rail rail_electric rail_fast ship container cable_car subway aircraft wheelchair scooter drone" speed="27.78" length="6.05" shape="624.59,625.57 622.91,626.21 621.74,626.56 620.54,626.83 618.78,627.20"/>
    </edge>
    <edge id=":7147447941_2" function="internal">
        <lane id=":7147447941_2_0" index="0" disallow="tram rail_urban rail rail_electric rail_fast ship container cable_car subway aircraft wheelchair scooter drone" speed="27.78" length="5.53" shape="618.09,624.08 619.69,623.74 620.79,623.50 621.87,623.18 623.41,622.60"/>
    </edge>
    <edge id=":7147447941_3" function="internal">
        <lane id=":7147447941_3_0" index="0" allow="pedestrian delivery bicycle" speed="5.89" length="2.01" shape="618.09,624.08 619.88,624.11 620.05,624.24"/>
    </edge>
    <edge id=":7147447941_4" function="internal">
        <lane id=":7147447941_4_0" index="0" allow="pedestrian delivery bicycle" speed="5.89" length="6.41" shape="620.05,624.24 621.16,625.09 621.93,627.04 622.19,629.94"/>
    </edge>
    <edge id=":7934520089_0" function="internal">
        <lane id=":7934520089_0_0" index="0" allow="pedestrian delivery bicycle" speed="3.65" length="4.67" shape="793.76,604.09 794.57,602.89 795.37,602.50 796.17,602.91 796.95,604.12"/>
    </edge>
    <edge id=":7934520090_0" function="internal">
        <lane id=":7934520090_0_0" index="0" allow="pedestrian delivery bicycle" speed="5.00" length="5.05" shape="816.15,1111.92 815.94,1110.55 815.34,1109.59 814.35,1109.04 812.96,1108.91"/>
    </edge>
    <edge id=":7934520090_1" function="internal">
        <lane id=":7934520090_1_0" index="0" allow="pedestrian delivery bicycle" speed="5.56" length="9.03" shape="816.15,1111.92 816.12,1109.24 816.20,1107.40 816.53,1105.59 817.26,1103.02"/>
    </edge>
    <edge id=":7934520090_2" function="internal">
        <lane id=":7934520090_2_0" index="0" allow="pedestrian delivery bicycle" speed="3.65" length="4.67" shape="816.15,1111.92 816.94,1110.71 817.74,1110.31 818.54,1110.70 819.35,1111.89"/>
    </edge>
    <edge id=":7934520090_3" function="internal">
        <lane id=":7934520090_3_0" index="0" allow="pedestrian delivery bicycle" speed="5.56" length="8.05" shape="820.32,1103.95 819.68,1106.24 819.39,1107.86 819.32,1109.50 819.35,1111.89"/>
    </edge>
    <edge id=":7934520090_4" function="internal">
        <lane id=":7934520090_4_0" index="0" allow="pedestrian delivery bicycle" speed="5.56" length="9.52" shape="820.32,1103.95 819.33,1106.01 817.77,1107.53 815.65,1108.50 812.96,1108.91"/>
    </edge>
    <edge id=":7934520090_5" function="internal">
        <lane id=":7934520090_5_0" index="0" allow="pedestrian delivery bicycle" speed="3.65" length="4.67" shape="820.32,1103.95 819.21,1104.87 818.33,1105.02 817.68,1104.40 817.26,1103.02"/>
    </edge>
    <edge id=":7934520090_6" function="internal">
        <lane id=":7934520090_6_0" index="0" allow="pedestrian delivery bicycle" speed="5.56" length="5.56" shape="812.81,1105.72 814.47,1105.48 815.77,1104.95 816.70,1104.14 817.26,1103.02"/>
    </edge>
    <edge id=":7934520090_7" function="internal">
        <lane id=":7934520090_7_0" index="0" allow="pedestrian delivery bicycle" speed="5.56" length="10.35" shape="812.81,1105.72 815.65,1105.99 817.68,1107.10 818.92,1109.07 819.35,1111.89"/>
    </edge>
    <edge id=":7934520090_8" function="internal">
        <lane id=":7934520090_8_0" index="0" allow="pedestrian delivery bicycle" speed="3.65" length="4.67" shape="812.81,1105.72 814.05,1106.46 814.48,1107.24 814.12,1108.06 812.96,1108.91"/>
    </edge>
    <edge id=":7934520091_0" function="internal">
        <lane id=":7934520091_0_0" index="0" allow="pedestrian delivery bicycle" speed="5.02" length="5.02" shape="634.53,1130.46 635.90,1130.27 636.87,1129.69 637.44,1128.72 637.62,1127.35"/>
    </edge>
    <edge id=":7934520091_1" function="internal">
        <lane id=":7934520091_1_0" index="0" allow="pedestrian delivery bicycle" speed="5.56" length="6.21" shape="634.53,1130.46 640.75,1130.46"/>
    </edge>
    <edge id=":7934520091_2" function="internal">
        <lane id=":7934520091_2_0" index="0" allow="pedestrian delivery bicycle" speed="5.56" length="6.24" shape="637.62,1133.59 637.62,1127.35"/>
    </edge>
    <edge id=":7934520091_3" function="internal">
        <lane id=":7934520091_3_0" index="0" allow="pedestrian delivery bicycle" speed="5.08" length="5.02" shape="637.62,1133.59 637.83,1132.23 638.42,1131.25 639.39,1130.66 640.75,1130.46"/>
    </edge>
    <edge id=":7934520092_0" function="internal">
        <lane id=":7934520092_0_0" index="0" allow="pedestrian delivery bicycle" speed="5.56" length="6.08" shape="788.07,1133.00 788.12,1126.91"/>
    </edge>
    <edge id=":7934520092_1" function="internal">
        <lane id=":7934520092_1_0" index="0" allow="pedestrian delivery bicycle" speed="3.65" length="4.67" shape="788.07,1133.00 788.84,1131.77 789.63,1131.35 790.44,1131.73 791.27,1132.91"/>
    </edge>
    <edge id=":7934520092_2" function="internal">
        <lane id=":7934520092_2_0" index="0" allow="pedestrian delivery bicycle" speed="5.56" length="5.86" shape="791.32,1127.05 791.27,1132.91"/>
    </edge>
    <edge id=":7934520092_3" function="internal">
        <lane id=":7934520092_3_0" index="0" allow="pedestrian delivery bicycle" speed="3.65" length="4.67" shape="791.32,1127.05 790.46,1128.22 789.65,1128.58 788.86,1128.15 788.12,1126.91"/>
    </edge>
    <edge id=":7934520092_4" function="internal">
        <lane id=":7934520092_4_0" index="0" allow="pedestrian delivery bicycle" speed="5.11" length="4.97" shape="784.93,1129.95 786.27,1129.75 787.25,1129.18 787.87,1128.24 788.12,1126.91"/>
    </edge>
    <edge id=":7934520092_5" function="internal">
        <lane id=":7934520092_5_0" index="0" allow="pedestrian delivery bicycle" speed="5.56" length="7.69" shape="784.93,1129.95 787.67,1130.12 789.64,1130.67 790.84,1131.60 791.27,1132.91"/>
    </edge>
    <edge id=":7934520093_0" function="internal">
        <lane id=":7934520093_0_0" index="0" allow="pedestrian delivery bicycle" speed="5.56" length="9.79" shape="801.03,1363.41 791.26,1363.86"/>
    </edge>
    <edge id=":7934520093_1" function="internal">
        <lane id=":7934520093_1_0" index="0" allow="pedestrian delivery bicycle" speed="5.56" length="10.45" shape="801.03,1363.41 798.15,1363.24 796.07,1362.19 794.78,1360.23 794.29,1357.39"/>
    </edge>
    <edge id=":7934520093_2" function="internal">
        <lane id=":7934520093_2_0" index="0" allow="pedestrian delivery bicycle" speed="3.65" length="4.67" shape="801.03,1363.41 799.77,1362.71 799.30,1361.95 799.63,1361.12 800.76,1360.22"/>
    </edge>
    <edge id=":7934520093_3" function="internal">